commons/src/test/resources/nonMergeableLoads.xiidm
<?xml version="1.0" encoding="UTF-8"?>
<iidm:network xmlns:iidm="http://www.powsybl.org/schema/iidm/1_18" id="multiLoads" caseDate="2023-02-17T05:41:11.194+01:00" forecastDistance="0" sourceFormat="test" minimumValidationLevel="STEADY_STATE_HYPOTHESIS">
    <iidm:substation id="substation">
        <iidm:voltageLevel id="vl1" nominalV="250.0" topologyKind="NODE_BREAKER">
            <iidm:nodeBreakerTopology>
                <iidm:busbarSection id="Busbar" node="0"/>
                <iidm:switch id="d1" kind="DISCONNECTOR" open="false" node1="0" node2="1"/>
                <iidm:switch id="d2" kind="DISCONNECTOR" open="false" node1="0" node2="2"/>
                <iidm:switch id="d3" kind="DISCONNECTOR" open="false" node1="0" node2="3"/>
                <iidm:switch id="d4" kind="DISCONNECTOR" open="false" node1="0" node2="4"/>
                <iidm:switch id="d5" kind="DISCONNECTOR" open="false" node1="0" node2="5"/>
            </iidm:nodeBreakerTopology>
            <iidm:load id="load1" loadType="UNDEFINED" p0="36.0" q0="2.0" node="1" p="6.1" q="1.0"/>
            <iidm:load id="load2" loadType="UNDEFINED" p0="-26.0" q0="3.0" node="2" p="-3.3" q="3.0"/>
            <iidm:load id="load3" loadType="UNDEFINED" p0="16.0" q0="-4.0" node="3" p="36.1" q="-1.0"/>
            <iidm:load id="load4" loadType="UNDEFINED" p0="-46.0" q0="-5.0" node="4" p="-5.5" q="-2.0"/>
        </iidm:voltageLevel>
        <iidm:voltageLevel id="vl2" nominalV="250.0" topologyKind="BUS_BREAKER">
            <iidm:busBreakerTopology>
                <iidm:bus id="b1"/>
                <iidm:bus id="b2"/>
                <iidm:switch id="c1" kind="BREAKER" retained="true" open="false" bus1="b1" bus2="b2"/>
            </iidm:busBreakerTopology>
            <iidm:generator id="g1" energySource="OTHER" minP="0.0" maxP="150.0" voltageRegulatorOn="true" targetP="101.0" targetV="390.0" bus="b1" connectableBus="b1">
                <iidm:minMaxReactiveLimits minQ="-1.7976931348623157E308" maxQ="1.7976931348623157E308"/>
            </iidm:generator>
            <iidm:load id="load5" loadType="UNDEFINED" p0="36.0" q0="2.0" bus="b2" connectableBus="b2" p="6.1" q="1.0"/>
            <iidm:load id="load6" loadType="UNDEFINED" p0="-26.0" q0="3.0" bus="b2" connectableBus="b2" p="-3.3" q="3.0"/>
            <iidm:load id="load7" loadType="UNDEFINED" p0="16.0" q0="-4.0" bus="b2" connectableBus="b2" p="36.1" q="-1.0"/>
            <iidm:load id="load8" loadType="UNDEFINED" p0="-46.0" q0="-5.0" bus="b2" connectableBus="b2" p="-5.5" q="-2.0"/>
        </iidm:voltageLevel>
    </iidm:substation>
    <iidm:line id="l1" r="1.0" x="3.0" node1="5" voltageLevelId1="vl1" bus2="b1" connectableBus2="b1" voltageLevelId2="vl2"/>
</iidm:network>
